Casos/pglib_opf_case179_goc/datosNodos.csv
bus_i;type;Pd;Qd;Gs;Bs;area;Vm;Va;baseKV;zone;Vmax;Vmin
2;1;926.77;-54.77;0;0;1;1.003;0;1;1;1.108;0.898
3;1;0;0;0;0;1;1.003;0;1;1;1.108;0.898
4;2;46.71;0;0;0;1;1.003;0;1;1;1.108;0.898
5;1;1271.04;-122.37;0;0;1;1.003;0;1;1;1.108;0.898
6;2;48.57;0;0;0;1;1.003;0;1;1;1.108;0.898
7;1;0;0;0;-113;1;1.003;0;1;1;1.108;0.898
8;1;113.45;-54.21;0;-155;1;1.003;0;1;1;1.108;0.898
9;2;50;0;0;0;1;1.003;0;1;1;1.108;0.898
10;1;67.39;22.91;0;0;1;1.003;0;1;1;1.108;0.898
11;2;47.87;0;0;0;1;1.003;0;1;1;1.108;0.898
12;1;41.43;65.76;0;-190;2;1.003;0;1;1;1.108;0.898
13;2;48.55;0;0;0;2;1.003;0;1;1;1.108;0.898
14;1;0;0;0;-391;2;1.003;0;1;1;1.108;0.898
15;2;46.55;0;0;0;2;1.003;0;1;1;1.108;0.898
16;1;434.68;215.2;0;-146;2;1.003;0;1;1;1.108;0.898
17;1;459.25;4.79;0;390;1;1.003;0;1;1;1.108;0.898
18;2;51.79;0;0;0;1;1.003;0;1;1;1.108;0.898
19;1;327.45;-64.08;0;-427;2;1.003;0;1;1;1.108;0.898
20;1;0;0;0;0;2;1.003;0;1;1;1.108;0.898
21;1;0;0;0;0;2;1.003;0;1;1;1.108;0.898
22;1;0;0;0;0;2;1.003;0;1;1;1.108;0.898
23;1;0;0;0;0;2;1.003;0;1;1;1.108;0.898
24;1;0;0;0;0;2;1.003;0;1;1;1.108;0.898
25;1;0;0;0;0;2;1.003;0;1;1;1.108;0.898
26;1;0;0;0;0;2;1.003;0;1;1;1.108;0.898
27;1;0;0;0;0;2;1.003;0;1;1;1.108;0.898
28;1;0;0;0;0;1;1.003;0;1;1;1.108;0.898
29;1;0;0;0;0;1;1.003;0;1;1;1.108;0.898
30;2;49.3;0;0;0;1;1.003;0;1;1;1.108;0.898
31;1;2376.39;1052.35;0;0;1;1.003;0;1;1;1.108;0.898
32;1;0;0;0;0;1;1.003;0;1;1;1.108;0.898
33;1;0;0;0;0;1;1.003;0;1;1;1.108;0.898
34;1;1692.19;703.18;0;0;1;1.003;0;1;1;1.108;0.898
35;2;45.09;0;0;0;1;1.003;0;1;1;1.108;0.898
36;2;51.16;0;0;0;1;1.003;0;1;1;1.108;0.898
37;1;-843.68;1045.02;0;912;2;1.003;0;1;1;1.108;0.898
38;1;0;0;0;0;2;1.003;0;1;1;1.108;0.898
39;1;0;0;0;0;2;1.003;0;1;1;1.108;0.898
40;2;51.45;0;0;0;2;1.003;0;1;1;1.108;0.898
41;1;69.79;28;0;0;2;1.003;0;1;1;1.108;0.898
42;1;0;0;0;0;2;1.003;0;1;1;1.108;0.898
43;2;49.01;0;0;0;2;1.003;0;1;1;1.108;0.898
44;1;1098.25;902.5;0;430;1;1.003;0;1;1;1.108;0.898
45;2;52.83;0;0;0;1;1.003;0;1;1;1.108;0.898
46;1;-35.89;-17.32;0;0;2;1.003;0;1;1;1.108;0.898
47;2;53.25;0;0;0;2;1.003;0;1;1;1.108;0.898
48;1;55.04;24.01;0;0;2;1.003;0;1;1;1.108;0.898
49;1;0;0;0;-80;2;1.003;0;1;1;1.108;0.898
50;1;172.41;62.09;0;0;2;1.003;0;1;1;1.108;0.898
51;1;115.98;-58.77;0;0;2;1.003;0;1;1;1.108;0.898
52;1;0;0;0;0;2;1.003;0;1;1;1.108;0.898
53;1;0;0;0;0;2;1.003;0;1;1;1.108;0.898
54;1;74.1;29.03;0;0;2;1.003;0;1;1;1.108;0.898
55;1;427.39;126.16;0;0;2;1.003;0;1;1;1.108;0.898
56;1;0;0;0;0;2;1.003;0;1;1;1.108;0.898
57;1;62.17;24.03;0;0;2;1.003;0;1;1;1.108;0.898
58;1;59.47;25.47;0;0;2;1.003;0;1;1;1.108;0.898
59;1;480.82;-6.57;0;0;2;1.003;0;1;1;1.108;0.898
60;1;-1459.73;1687.42;0;2146;2;1.003;0;1;1;1.108;0.898
61;1;185.63;75.27;0;0;2;1.003;0;1;1;1.108;0.898
62;1;96.01;18.56;0;0;2;1.003;0;1;1;1.108;0.898
63;1;-69.23;30.32;0;-108;2;1.003;0;1;1;1.108;0.898
64;1;0;0;0;0;2;1.003;0;1;1;1.108;0.898
65;2;46.97;0;0;0;1;1.003;0;1;1;1.108;0.898
66;1;774.37;298.97;0;0;1;1.003;0;1;1;1.108;0.898
67;1;78.5;31.52;0;0;1;1.003;0;1;1;1.108;0.898
68;1;-35.37;174.17;0;576.85;1;1.003;0;1;1;1.108;0.898
69;1;-23.29;20.73;0;0;1;1.003;0;1;1;1.108;0.898
70;2;51.91;0;0;0;1;1.003;0;1;1;1.108;0.898
71;1;1486.08;1816.85;0;792;1;1.003;0;1;1;1.108;0.898
72;1;0;0;0;462;1;1.003;0;1;1;1.108;0.898
73;1;-781.91;-53.83;0;0;1;1.003;0;1;1;1.108;0.898
74;1;0;0;0;0;1;1.003;0;1;1;1.108;0.898
75;1;1223.08;413.7;0;0;1;1.003;0;1;1;1.108;0.898
76;1;1617.77;1164.73;0;1019.35;1;1.003;0;1;1;1.108;0.898
77;3;54.24;0;0;0;1;1.003;0;1;1;1.108;0.898
78;1;1780.83;538.1;0;550;1;1.003;0;1;1;1.108;0.898
79;2;53.91;0;0;0;1;1.003;0;1;1;1.108;0.898
80;1;2289.75;396.38;0;1200;1;1.003;0;1;1;1.108;0.898
81;1;0;0;0;-220;1;1.003;0;1;1;1.108;0.898
82;1;-30.36;-92.62;0;-674;1;1.003;0;1;1;1.108;0.898
83;1;-185.65;-127.12;0;-110;1;1.003;0;1;1;1.108;0.898
84;1;0;0;0;-220;1;1.003;0;1;1;1.108;0.898
85;1;307.42;-452.74;0;-870;1;1.003;0;1;1;1.108;0.898
86;1;0;0;0;0;1;1.003;0;1;1;1.108;0.898
87;1;0;0;0;0;1;1.003;0;1;1;1.108;0.898
88;1;0;0;0;0;1;1.003;0;1;1;1.108;0.898
89;1;0;0;0;0;1;1.003;0;1;1;1.108;0.898
90;1;0;0;0;0;1;1.003;0;1;1;1.108;0.898
91;1;0;0;0;0;1;1.003;0;1;1;1.108;0.898
92;1;0;0;0;0;1;1.003;0;1;1;1.108;0.898
93;1;0;0;0;0;1;1.003;0;1;1;1.108;0.898
94;1;0;0;0;0;1;1.003;0;1;1;1.108;0.898
95;1;0;0;0;0;1;1.003;0;1;1;1.108;0.898
96;1;0;0;0;0;1;1.003;0;1;1;1.108;0.898
97;1;0;0;0;0;1;1.003;0;1;1;1.108;0.898
98;1;0;0;0;0;1;1.003;0;1;1;1.108;0.898
99;1;0;0;0;0;1;1.003;0;1;1;1.108;0.898
100;1;-19.81;21.24;0;0;3;1.003;0;1;1;1.108;0.898
101;1;107.66;-82.5;0;0;3;1.003;0;1;1;1.108;0.898
102;1;23.75;26.25;0;0;2;1.003;0;1;1;1.108;0.898
103;2;54.62;0;0;0;2;1.003;0;1;1;1.108;0.898
104;1;167.6;-8.03;0;-91;2;1.003;0;1;1;1.108;0.898
105;1;14.28;-0.11;0;0;3;1.003;0;1;1;1.108;0.898
106;1;3.78;0;0;0;3;1.003;0;1;1;1.108;0.898
107;1;131.26;13.82;0;0;2;1.003;0;1;1;1.108;0.898
108;1;28.61;-310.03;0;-327;2;1.003;0;1;1;1.108;0.898
109;1;427.13;35.78;0;-130;2;1.003;0;1;1;1.108;0.898
110;1;19.35;21.06;0;0;2;1.003;0;1;1;1.108;0.898
111;1;-99.3;63.54;0;0;3;1.003;0;1;1;1.108;0.898
112;2;54.11;0;0;0;3;1.003;0;1;1;1.108;0.898
113;1;75.99;0;0;-128;3;1.003;0;1;1;1.108;0.898
114;1;0;0;0;-91;3;1.003;0;1;1;1.108;0.898
115;1;-0.38;115.26;0;-91;3;1.003;0;1;1;1.108;0.898
116;2;51.07;0;0;0;3;1.003;0;1;1;1.108;0.898
117;1;438.16;54.83;0;-32;3;1.003;0;1;1;1.108;0.898
118;2;54.76;0;0;0;3;1.003;0;1;1;1.108;0.898
119;1;2650.16;3818.43;0;1500;3;1.003;0;1;1;1.108;0.898
120;1;0;0;0;0;3;1.003;0;1;1;1.108;0.898
121;1;0;0;0;0;3;1.003;0;1;1;1.108;0.898
122;1;0;0;0;0;3;1.003;0;1;1;1.108;0.898
123;1;0;0;0;0;3;1.003;0;1;1;1.108;0.898
124;1;0;0;0;0;3;1.003;0;1;1;1.108;0.898
125;1;0;0;0;0;3;1.003;0;1;1;1.108;0.898
126;1;0;0;0;0;3;1.003;0;1;1;1.108;0.898
127;1;0;0;0;0;3;1.003;0;1;1;1.108;0.898
128;1;0;0;0;0;3;1.003;0;1;1;1.108;0.898
129;1;0;0;0;0;3;1.003;0;1;1;1.108;0.898
130;1;0;0;0;0;3;1.003;0;1;1;1.108;0.898
131;1;0;0;0;0;3;1.003;0;1;1;1.108;0.898
132;1;0;0;0;0;2;1.003;0;1;1;1.108;0.898
133;1;0;0;0;0;2;1.003;0;1;1;1.108;0.898
134;1;0;0;0;0;2;1.003;0;1;1;1.108;0.898
135;1;0;0;0;0;2;1.003;0;1;1;1.108;0.898
136;1;414.72;17.91;0;0;2;1.003;0;1;1;1.108;0.898
137;1;95.26;17.51;0;0;2;1.003;0;1;1;1.108;0.898
138;2;46.32;0;0;0;2;1.003;0;1;1;1.108;0.898
139;1;471.17;-10.81;0;-319;2;1.003;0;1;1;1.108;0.898
140;2;48.52;0;0;0;2;1.003;0;1;1;1.108;0.898
141;1;1730.28;609.69;0;0;2;1.003;0;1;1;1.108;0.898
142;1;107.93;-26.18;0;0;2;1.003;0;1;1;1.108;0.898
143;1;174.36;60.86;0;0;2;1.003;0;1;1;1.108;0.898
144;2;45.88;0;0;0;2;1.003;0;1;1;1.108;0.898
145;1;1540.95;1238.88;0;400;2;1.003;0;1;1;1.108;0.898
146;1;0;0;0;0;2;1.003;0;1;1;1.108;0.898
147;1;0;0;0;-196;2;1.003;0;1;1;1.108;0.898
148;2;53.68;0;0;0;2;1.003;0;1;1;1.108;0.898
149;2;49.94;0;0;0;2;1.003;0;1;1;1.108;0.898
150;1;1578.86;75.65;0;0;2;1.003;0;1;1;1.108;0.898
151;1;559.23;78.48;0;0;2;1.003;0;1;1;1.108;0.898
152;1;191.17;45.01;0;0;2;1.003;0;1;1;1.108;0.898
153;1;0;0;0;0;2;1.003;0;1;1;1.108;0.898
154;1;511.38;-10.66;0;-190;2;1.003;0;1;1;1.108;0.898
155;1;210.22;74.94;0;-60;1;1.003;0;1;1;1.108;0.898
156;1;16.91;12.04;0;0;1;1.003;0;1;1;1.108;0.898
157;1;79.39;-8.29;0;0;1;1.003;0;1;1;1.108;0.898
158;1;53.01;41.07;0;-220;1;1.003;0;1;1;1.108;0.898
159;2;53.7;0;0;0;1;1.003;0;1;1;1.108;0.898
160;1;-29.29;11.72;0;0;1;1.003;0;1;1;1.108;0.898
161;1;137.66;104.12;0;0;1;1.003;0;1;1;1.108;0.898
162;2;47.79;0;0;0;1;1.003;0;1;1;1.108;0.898
163;1;0;0;0;0;1;1.003;0;1;1;1.108;0.898
164;1;15.05;12.06;0;-18;1;1.003;0;1;1;1.108;0.898
165;1;73.31;70;0;0;1;1.003;0;1;1;1.108;0.898
166;1;171.78;-39.78;0;-50;1;1.003;0;1;1;1.108;0.898
167;1;95.68;75.76;0;0;1;1.003;0;1;1;1.108;0.898
168;1;0;0;0;0;3;1.003;0;1;1;1.108;0.898
169;1;0;0;0;0;3;1.003;0;1;1;1.108;0.898
170;1;0;0;0;0;3;1.003;0;1;1;1.108;0.898
171;1;0;0;0;0;3;1.003;0;1;1;1.108;0.898
172;1;0;0;0;0;3;1.003;0;1;1;1.108;0.898
173;1;0;0;0;0;3;1.003;0;1;1;1.108;0.898
174;1;0;0;0;0;2;1.003;0;1;1;1.108;0.898
175;1;0;0;0;0;2;1.003;0;1;1;1.108;0.898
176;1;0;0;0;0;2;1.003;0;1;1;1.108;0.898
177;1;0;0;0;0;2;1.003;0;1;1;1.108;0.898
178;1;0;0;0;0;2;1.003;0;1;1;1.108;0.898
179;1;0;0;0;0;2;1.003;0;1;1;1.108;0.898
180;1;0;0;0;-220;1;1.003;0;1;1;1.108;0.898
